1a0q_ligand
     RDKit          3D

 23 23  0  0  0  0  0  0  0  0999 V2000
   12.8814   20.5447   59.1999 C   0  0  2  0  0  0  0  0  0  0  0  0
   11.8750   19.8448   58.3280 C   0  0  0  0  0  0  0  0  0  0  0  0
   11.3285   18.5930   58.9293 C   0  0  0  0  0  0  0  0  0  0  0  0
   10.9593   17.6599   57.7819 C   0  0  0  0  0  0  0  0  0  0  0  0
   12.0445   16.6790   57.4670 C   0  0  0  0  0  0  0  0  0  0  0  0
   16.8223   22.2331   56.1280 C   0  0  0  0  0  0  0  0  0  0  0  0
   17.1717   22.6411   54.8671 C   0  0  0  0  0  0  0  0  0  0  0  0
   16.3747   22.3783   53.7828 C   0  0  0  0  0  0  0  0  0  0  0  0
   15.1891   21.6758   54.0177 C   0  0  0  0  0  0  0  0  0  0  0  0
   14.8476   21.2710   55.2863 C   0  0  0  0  0  0  0  0  0  0  0  0
   15.6455   21.5326   56.3807 C   0  0  0  0  0  0  0  0  0  0  0  0
   12.5857   20.7138   61.6739 C   0  0  0  0  0  0  0  0  0  0  0  0
   12.7615   21.0847   64.1158 C   0  0  0  0  0  0  0  0  0  0  0  0
   11.9561   21.3212   62.8753 C   0  0  0  0  0  0  0  0  0  0  0  0
   13.8088   22.1208   64.2958 C   0  0  0  0  0  0  0  0  0  0  0  0
   13.0107   22.2725   57.1517 O   0  0  0  0  0  0  0  0  0  0  0  0
   14.2634   23.0962   59.2553 O   0  0  0  0  0  0  0  0  0  0  0  0
   15.2886   21.1177   57.6575 O   0  0  0  0  0  0  0  0  0  0  0  0
   13.3984   19.7673   61.8178 O   0  0  0  0  0  0  0  0  0  0  0  0
   13.7073   23.2970   63.8573 O   0  0  0  0  0  0  0  0  0  0  0  0
   14.9566   21.7122   65.0022 O   0  0  0  0  0  0  0  0  0  0  0  0
   12.3034   21.1642   60.3554 N   0  0  0  0  0  0  0  0  0  0  0  0
   13.8531   21.7631   58.3159 P   0  0  1  0  0  5  0  0  0  0  0  0
  1 23  1  0
  1 22  1  0
  1  2  1  6
  2  3  1  0
  3  4  1  0
  4  5  1  0
 22 12  1  0
 12 19  2  0
 12 14  1  0
 14 13  1  0
 13 15  1  0
 15 20  2  0
 15 21  1  0
 23 16  2  0
 23 17  1  1
 23 18  1  0
 18 11  1  0
 11 10  1  0
 11  6  2  0
  6  7  1  0
  7  8  2  0
  8  9  1  0
  9 10  2  0
M  END
$$$$
