1a0q_ligand
     RDKit          3D

 23 23  0  0  0  0  0  0  0  0999 V2000
   13.1129   20.6005   59.2239 C   0  0  2  0  0  0  0  0  0  0  0  0
   12.0764   19.8576   58.4259 C   0  0  0  0  0  0  0  0  0  0  0  0
   11.3177   18.8481   59.2211 C   0  0  0  0  0  0  0  0  0  0  0  0
   10.8592   17.7599   58.2571 C   0  0  0  0  0  0  0  0  0  0  0  0
   12.0038   17.0538   57.6011 C   0  0  0  0  0  0  0  0  0  0  0  0
   16.8470   21.9819   55.7559 C   0  0  0  0  0  0  0  0  0  0  0  0
   17.0682   22.2264   54.4256 C   0  0  0  0  0  0  0  0  0  0  0  0
   16.1405   21.8933   53.4724 C   0  0  0  0  0  0  0  0  0  0  0  0
   14.9581   21.2931   53.9151 C   0  0  0  0  0  0  0  0  0  0  0  0
   14.7459   21.0521   55.2517 C   0  0  0  0  0  0  0  0  0  0  0  0
   15.6756   21.3850   56.2150 C   0  0  0  0  0  0  0  0  0  0  0  0
   13.1165   21.0564   61.6793 C   0  0  0  0  0  0  0  0  0  0  0  0
   11.2366   21.3416   63.2654 C   0  0  0  0  0  0  0  0  0  0  0  0
   12.6123   21.7848   62.8725 C   0  0  0  0  0  0  0  0  0  0  0  0
   11.2699   20.0882   64.0595 C   0  0  0  0  0  0  0  0  0  0  0  0
   13.1364   22.2399   57.1004 O   0  0  0  0  0  0  0  0  0  0  0  0
   14.4602   23.1687   59.1147 O   0  0  0  0  0  0  0  0  0  0  0  0
   15.4484   21.1359   57.5626 O   0  0  0  0  0  0  0  0  0  0  0  0
   14.0508   20.2281   61.8140 O   0  0  0  0  0  0  0  0  0  0  0  0
   10.2535   19.3799   64.2858 O   0  0  0  0  0  0  0  0  0  0  0  0
   12.5321   19.7181   64.5630 O   0  0  0  0  0  0  0  0  0  0  0  0
   12.5798   21.2602   60.3788 N   0  0  0  0  0  0  0  0  0  0  0  0
   14.0315   21.7915   58.2503 P   0  0  1  0  0  5  0  0  0  0  0  0
  1 23  1  0
  1 22  1  0
  1  2  1  6
  2  3  1  0
  3  4  1  0
  4  5  1  0
 22 12  1  0
 12 19  2  0
 12 14  1  0
 14 13  1  0
 13 15  1  0
 15 20  2  0
 15 21  1  0
 23 16  2  0
 23 17  1  1
 23 18  1  0
 18 11  1  0
 11 10  1  0
 11  6  2  0
  6  7  1  0
  7  8  2  0
  8  9  1  0
  9 10  2  0
M  END
$$$$
