1a0q_ligand
     RDKit          3D

 23 23  0  0  0  0  0  0  0  0999 V2000
   13.0192   20.5980   59.3475 C   0  0  2  0  0  0  0  0  0  0  0  0
   12.0240   19.8018   58.5483 C   0  0  0  0  0  0  0  0  0  0  0  0
   11.2630   18.8065   59.3592 C   0  0  0  0  0  0  0  0  0  0  0  0
   11.3959   17.4561   58.6649 C   0  0  0  0  0  0  0  0  0  0  0  0
   11.3106   17.5651   57.1749 C   0  0  0  0  0  0  0  0  0  0  0  0
   16.6854   22.0727   55.8766 C   0  0  0  0  0  0  0  0  0  0  0  0
   16.9272   22.4393   54.5783 C   0  0  0  0  0  0  0  0  0  0  0  0
   16.0449   22.1380   53.5729 C   0  0  0  0  0  0  0  0  0  0  0  0
   14.8868   21.4402   53.9282 C   0  0  0  0  0  0  0  0  0  0  0  0
   14.6535   21.0771   55.2334 C   0  0  0  0  0  0  0  0  0  0  0  0
   15.5376   21.3775   56.2488 C   0  0  0  0  0  0  0  0  0  0  0  0
   12.8355   21.0987   61.7872 C   0  0  0  0  0  0  0  0  0  0  0  0
   11.1071   21.2929   63.5497 C   0  0  0  0  0  0  0  0  0  0  0  0
   12.3137   21.9135   62.9152 C   0  0  0  0  0  0  0  0  0  0  0  0
   11.4656   20.1062   64.3657 C   0  0  0  0  0  0  0  0  0  0  0  0
   13.0454   22.2903   57.2659 O   0  0  0  0  0  0  0  0  0  0  0  0
   14.5494   23.0607   59.2198 O   0  0  0  0  0  0  0  0  0  0  0  0
   15.2896   21.0046   57.5638 O   0  0  0  0  0  0  0  0  0  0  0  0
   13.6639   20.1843   62.0209 O   0  0  0  0  0  0  0  0  0  0  0  0
   12.4625   20.0648   65.1341 O   0  0  0  0  0  0  0  0  0  0  0  0
   10.6106   18.9947   64.2348 O   0  0  0  0  0  0  0  0  0  0  0  0
   12.4319   21.3136   60.4411 N   0  0  0  0  0  0  0  0  0  0  0  0
   13.9683   21.7442   58.3497 P   0  0  1  0  0  5  0  0  0  0  0  0
  1 23  1  0
  1 22  1  0
  1  2  1  6
  2  3  1  0
  3  4  1  0
  4  5  1  0
 22 12  1  0
 12 19  2  0
 12 14  1  0
 14 13  1  0
 13 15  1  0
 15 20  2  0
 15 21  1  0
 23 16  2  0
 23 17  1  1
 23 18  1  0
 18 11  1  0
 11 10  1  0
 11  6  2  0
  6  7  1  0
  7  8  2  0
  8  9  1  0
  9 10  2  0
M  END
$$$$
