1a0q_ligand
     RDKit          3D

 23 23  0  0  0  0  0  0  0  0999 V2000
   13.0514   20.5570   59.3248 C   0  0  2  0  0  0  0  0  0  0  0  0
   12.1942   19.6511   58.4837 C   0  0  0  0  0  0  0  0  0  0  0  0
   11.3973   18.6713   59.2788 C   0  0  0  0  0  0  0  0  0  0  0  0
   11.2209   17.4241   58.4204 C   0  0  0  0  0  0  0  0  0  0  0  0
   11.5085   17.6767   56.9739 C   0  0  0  0  0  0  0  0  0  0  0  0
   14.7663   20.8940   55.3878 C   0  0  0  0  0  0  0  0  0  0  0  0
   14.9916   21.0897   54.0501 C   0  0  0  0  0  0  0  0  0  0  0  0
   16.0852   21.7852   53.6024 C   0  0  0  0  0  0  0  0  0  0  0  0
   16.9617   22.2870   54.5690 C   0  0  0  0  0  0  0  0  0  0  0  0
   16.7268   22.0853   55.9083 C   0  0  0  0  0  0  0  0  0  0  0  0
   15.6283   21.3864   56.3644 C   0  0  0  0  0  0  0  0  0  0  0  0
   12.5713   20.9582   61.7426 C   0  0  0  0  0  0  0  0  0  0  0  0
   12.0066   21.0016   64.1531 C   0  0  0  0  0  0  0  0  0  0  0  0
   11.8745   21.6924   62.8306 C   0  0  0  0  0  0  0  0  0  0  0  0
   13.2227   21.4403   64.8820 C   0  0  0  0  0  0  0  0  0  0  0  0
   13.0531   22.1746   57.1845 O   0  0  0  0  0  0  0  0  0  0  0  0
   14.2745   23.1869   59.2232 O   0  0  0  0  0  0  0  0  0  0  0  0
   15.4027   21.1898   57.7209 O   0  0  0  0  0  0  0  0  0  0  0  0
   13.4081   20.0697   62.0382 O   0  0  0  0  0  0  0  0  0  0  0  0
   13.7110   20.8162   65.8608 O   0  0  0  0  0  0  0  0  0  0  0  0
   13.8225   22.6245   64.4115 O   0  0  0  0  0  0  0  0  0  0  0  0
   12.3277   21.2225   60.3671 N   0  0  0  0  0  0  0  0  0  0  0  0
   13.9371   21.7819   58.3630 P   0  0  1  0  0  5  0  0  0  0  0  0
  1 23  1  0
  1 22  1  0
  1  2  1  6
  2  3  1  0
  3  4  1  0
  4  5  1  0
 22 12  1  0
 12 19  2  0
 12 14  1  0
 14 13  1  0
 13 15  1  0
 15 20  2  0
 15 21  1  0
 23 16  2  0
 23 17  1  1
 23 18  1  0
 18 11  1  0
 11 10  1  0
 11  6  2  0
  6  7  1  0
  7  8  2  0
  8  9  1  0
  9 10  2  0
M  END
$$$$
